/*---------------------------------------------------------------------------*\
  =========                 |
  \\      /  F ield         | OpenFOAM: The Open Source CFD Toolbox
   \\    /   O peration     | Website:  https://openfoam.org
    \\  /    A nd           | Version:  7
     \\/     M anipulation  |
\*---------------------------------------------------------------------------*/
Build  : 7-1ff648926f77
Exec   : blockMesh
Date   : Apr 06 2020
Time   : 15:12:08
Host   : "DESKTOP-SJLM42R"
PID    : 13595
I/O    : uncollated
Case   : /mnt/c/Users/Henry/Documents/coe347/openFOAM/assignment2/circular-cylinder
nProcs : 1
sigFpe : Enabling floating point exception trapping (FOAM_SIGFPE).
fileModificationChecking : Monitoring run-time modified files using timeStampMaster (fileModificationSkew 10)
allowSystemOperations : Allowing user-supplied system call operations

// * * * * * * * * * * * * * * * * * * * * * * * * * * * * * * * * * * * * * //
Create time

Deleting polyMesh directory
    "/mnt/c/Users/Henry/Documents/coe347/openFOAM/assignment2/circular-cylinder/constant/polyMesh"
Creating block mesh from
    "/mnt/c/Users/Henry/Documents/coe347/openFOAM/assignment2/circular-cylinder/system/blockMeshDict"
Creating block edges
No non-planar block faces defined
Creating topology blocks
Creating topology patches

Creating block mesh topology
--> FOAM Warning : 
    From function Foam::polyMesh::polyMesh(const Foam::IOobject&, Foam::pointField&&, const cellShapeList&, const faceListList&, const wordList&, const Foam::PtrList<Foam::dictionary>&, const Foam::word&, const Foam::word&, bool)
    in file meshes/polyMesh/polyMeshFromShapeMesh.C at line 873
    Found 40 undefined faces in mesh; adding to default patch.

Check topology

        Basic statistics
                Number of internal faces : 28
                Number of boundary faces : 64
                Number of defined boundary faces : 64
                Number of undefined boundary faces : 0
        Checking patch -> block consistency

Creating block offsets
Creating merge list .

Creating polyMesh from blockMesh
Creating patches
Creating cells
Creating points with scale 1
    Block 0 cell size :
        i : 0.05 .. 0.05 0.0500025 .. 0.0500025 0.05 0.0500025 .. 0.0500025 
        j : 0.019636 .. 0.019636 0.0215996 .. 0.0215996 0.019636 .. 0.019636 0.0215996 .. 0.0215996 
        k : 1
    Block 1 cell size :
        i : 0.175 .. 0.175 0.175058 .. 0.175058 0.175 .. 0.175 0.175058 .. 0.175058 
        j : 0.0589084 .. 0.0589084 0.058615 .. 0.0579054 0.0589084 .. 0.0589084 0.058615 .. 0.0579054 
        k : 1
    Block 2 cell size :
        i : 0.19695 .. 0.19695
        j : 0.19695 .. 0.19695
        k : 1
    Block 3 cell size :
        i : 0.19695 .. 0.19695 0.194911 0.19695 .. 0.19695 0.194911 
        j : 0.0589084 .. 0.0589084 0.0579054 .. 0.058615 0.0589084 .. 0.0589084 0.0579054 .. 0.058615 
        k : 1
    Block 4 cell size :
        i : 0.175 .. 0.175 0.175058 .. 0.175058 0.175 .. 0.175 0.175058 .. 0.175058 
        j : 0.0589084 .. 0.0589084 0.058615 .. 0.0579054 0.0589084 .. 0.0589084 0.058615 .. 0.0579054 
        k : 1
    Block 5 cell size :
        i : 0.19695 .. 0.19695
        j : 0.19695 .. 0.19695
        k : 1
    Block 6 cell size :
        i : 0.19695 .. 0.19695 0.194911 0.19695 .. 0.19695 0.194911 
        j : 0.0589084 .. 0.0589084 0.0579054 .. 0.058615 0.0589084 .. 0.0589084 0.0579054 .. 0.058615 
        k : 1
    Block 7 cell size :
        i : 0.175 .. 0.175 0.175058 .. 0.175058 0.175 .. 0.175 0.175058 .. 0.175058 
        j : 0.0589084 .. 0.0589084 0.058615 .. 0.0579054 0.0589084 .. 0.0589084 0.058615 .. 0.0579054 
        k : 1
    Block 8 cell size :
        i : 0.19695 .. 0.19695
        j : 0.19695 .. 0.19695
        k : 1
    Block 9 cell size :
        i : 0.19695 .. 0.19695 0.194911 0.19695 .. 0.19695 0.194911 
        j : 0.0589084 .. 0.0589084 0.0579054 .. 0.058615 0.0589084 .. 0.0589084 0.0579054 .. 0.058615 
        k : 1
    Block 10 cell size :
        i : 0.175 .. 0.175 0.175058 .. 0.175058 0.175 .. 0.175 0.175058 .. 0.175058 
        j : 0.0589084 .. 0.0589084 0.058615 .. 0.0579054 0.0589084 .. 0.0589084 0.058615 .. 0.0579054 
        k : 1
    Block 11 cell size :
        i : 0.19695 .. 0.19695
        j : 0.19695 .. 0.19695
        k : 1
    Block 12 cell size :
        i : 0.19695 .. 0.19695 0.194911 0.19695 .. 0.19695 0.194911 
        j : 0.0589084 .. 0.0589084 0.0579054 .. 0.058615 0.0589084 .. 0.0589084 0.0579054 .. 0.058615 
        k : 1
    Block 13 cell size :
        i : 0.0499924 .. 0.0499924 0.0499834 .. 0.0499834 0.0499924 .. 0.0499924 0.0499834 .. 0.0499834 
        j : 0.0196702 .. 0.0196702 0.0216321 .. 0.021632 0.0196702 .. 0.0196702 0.0216321 .. 0.021632 
        k : 1
    Block 14 cell size :
        i : 0.05 .. 0.05 0.0500025 .. 0.0500025 0.05 0.0500025 .. 0.0500025 
        j : 0.019636 .. 0.019636 0.0215996 .. 0.0215996 0.019636 .. 0.019636 0.0215996 .. 0.0215996 
        k : 1
    Block 15 cell size :
        i : 0.0499924 .. 0.0499924 0.0499834 .. 0.0499834 0.0499924 .. 0.0499924 0.0499834 .. 0.0499834 
        j : 0.0196702 .. 0.0196702 0.0216321 .. 0.021632 0.0196702 .. 0.0196702 0.0216321 .. 0.021632 
        k : 1
    Block 16 cell size :
        i : 0.05 .. 0.05 0.0500025 .. 0.0500025 0.05 0.0500025 .. 0.0500025 
        j : 0.019636 .. 0.019636 0.0215996 .. 0.0215996 0.019636 .. 0.019636 0.0215996 .. 0.0215996 
        k : 1
    Block 17 cell size :
        i : 0.0499924 .. 0.0499924 0.0499834 .. 0.0499834 0.0499924 .. 0.0499924 0.0499834 .. 0.0499834 
        j : 0.0196702 .. 0.0196702 0.0216321 .. 0.021632 0.0196702 .. 0.0196702 0.0216321 .. 0.021632 
        k : 1
    Block 18 cell size :
        i : 0.05 .. 0.05 0.0500025 .. 0.0500025 0.05 0.0500025 .. 0.0500025 
        j : 0.019636 .. 0.019636 0.0215996 .. 0.0215996 0.019636 .. 0.019636 0.0215996 .. 0.0215996 
        k : 1
    Block 19 cell size :
        i : 0.0499924 .. 0.0499924 0.0499834 .. 0.0499834 0.0499924 .. 0.0499924 0.0499834 .. 0.0499834 
        j : 0.0196702 .. 0.0196702 0.0216321 .. 0.021632 0.0196702 .. 0.0196702 0.0216321 .. 0.021632 
        k : 1

There are no merge patch pairs edges

Writing polyMesh
----------------
Mesh Information
----------------
  boundingBox: (-5 -5 0) (5 5 1)
  nPoints: 16480
  nCells: 8000
  nFaces: 32240
  nInternalFaces: 15760
----------------
Patches
----------------
  patch 0 (start: 15760 size: 80) name: inlet
  patch 1 (start: 15840 size: 80) name: outlet
  patch 2 (start: 15920 size: 160) name: cylinder
  patch 3 (start: 16080 size: 80) name: top
  patch 4 (start: 16160 size: 80) name: bottom
  patch 5 (start: 16240 size: 16000) name: defaultFaces

End