/*---------------------------------------------------------------------------*\
  =========                 |
  \\      /  F ield         | OpenFOAM: The Open Source CFD Toolbox
   \\    /   O peration     | Website:  https://openfoam.org
    \\  /    A nd           | Version:  7
     \\/     M anipulation  |
\*---------------------------------------------------------------------------*/
Build  : 7-1ff648926f77
Exec   : checkMesh
Date   : Apr 06 2020
Time   : 15:13:19
Host   : "DESKTOP-SJLM42R"
PID    : 13632
I/O    : uncollated
Case   : /mnt/c/Users/Henry/Documents/coe347/openFOAM/assignment2/circular-cylinder
nProcs : 1
sigFpe : Enabling floating point exception trapping (FOAM_SIGFPE).
fileModificationChecking : Monitoring run-time modified files using timeStampMaster (fileModificationSkew 10)
allowSystemOperations : Allowing user-supplied system call operations

// * * * * * * * * * * * * * * * * * * * * * * * * * * * * * * * * * * * * * //
Create time

Create polyMesh for time = 0

Time = 0

Mesh stats
    points:           16480
    internal points:  0
    faces:            32240
    internal faces:   15760
    cells:            8000
    faces per cell:   6
    boundary patches: 6
    point zones:      0
    face zones:       0
    cell zones:       0

Overall number of cells of each type:
    hexahedra:     8000
    prisms:        0
    wedges:        0
    pyramids:      0
    tet wedges:    0
    tetrahedra:    0
    polyhedra:     0

Checking topology...
    Boundary definition OK.
    Cell to face addressing OK.
    Point usage OK.
    Upper triangular ordering OK.
    Face vertices OK.
    Number of regions: 1 (OK).

Checking patch topology for multiply connected surfaces...
    Patch               Faces    Points   Surface topology                  
    inlet               80       162      ok (non-closed singly connected)  
    outlet              80       162      ok (non-closed singly connected)  
    cylinder            160      320      ok (non-closed singly connected)  
    top                 80       162      ok (non-closed singly connected)  
    bottom              80       162      ok (non-closed singly connected)  
    defaultFaces        16000    16480    ok (non-closed singly connected)  

Checking geometry...
    Overall domain bounding box (-5 -5 0) (5 5 1)
    Mesh has 2 geometric (non-empty/wedge) directions (1 1 0)
    Mesh has 2 solution (non-empty) directions (1 1 0)
    All edges aligned with or perpendicular to non-empty directions.
    Boundary openness (1.103e-16 -2.09111e-17 -5.18828e-19) OK.
    Max cell openness = 2.16008e-16 OK.
    Max aspect ratio = 5.47925 OK.
    Minimum face area = 0.00103056. Maximum face area = 0.19695.  Face area magnitudes OK.
    Min volume = 0.00103056. Max volume = 0.0387893.  Total volume = 99.2133.  Cell volumes OK.
    Mesh non-orthogonality Max: 42.0968 average: 9.86569
    Non-orthogonality check OK.
    Face pyramids OK.
    Max skewness = 0.600964 OK.
    Coupled point location match (average 0) OK.

Mesh OK.

End