/*---------------------------------------------------------------------------*\
  =========                 |
  \\      /  F ield         | OpenFOAM: The Open Source CFD Toolbox
   \\    /   O peration     | Website:  https://openfoam.org
    \\  /    A nd           | Version:  7
     \\/     M anipulation  |
\*---------------------------------------------------------------------------*/
Build  : 7-1ff648926f77
Exec   : checkMesh
Date   : Apr 06 2020
Time   : 15:02:43
Host   : "DESKTOP-SJLM42R"
PID    : 13350
I/O    : uncollated
Case   : /mnt/c/Users/Henry/Documents/coe347/openFOAM/assignment2/circular-cylinder
nProcs : 1
sigFpe : Enabling floating point exception trapping (FOAM_SIGFPE).
fileModificationChecking : Monitoring run-time modified files using timeStampMaster (fileModificationSkew 10)
allowSystemOperations : Allowing user-supplied system call operations

// * * * * * * * * * * * * * * * * * * * * * * * * * * * * * * * * * * * * * //
Create time

Create polyMesh for time = 0

Time = 0

Mesh stats
    points:           4240
    internal points:  0
    faces:            8120
    internal faces:   3880
    cells:            2000
    faces per cell:   6
    boundary patches: 6
    point zones:      0
    face zones:       0
    cell zones:       0

Overall number of cells of each type:
    hexahedra:     2000
    prisms:        0
    wedges:        0
    pyramids:      0
    tet wedges:    0
    tetrahedra:    0
    polyhedra:     0

Checking topology...
    Boundary definition OK.
    Cell to face addressing OK.
    Point usage OK.
    Upper triangular ordering OK.
    Face vertices OK.
    Number of regions: 1 (OK).

Checking patch topology for multiply connected surfaces...
    Patch               Faces    Points   Surface topology                  
    inlet               40       82       ok (non-closed singly connected)  
    outlet              40       82       ok (non-closed singly connected)  
    cylinder            80       160      ok (non-closed singly connected)  
    top                 40       82       ok (non-closed singly connected)  
    bottom              40       82       ok (non-closed singly connected)  
    defaultFaces        4000     4240     ok (non-closed singly connected)  

Checking geometry...
    Overall domain bounding box (-5 -5 0) (5 5 1)
    Mesh has 2 geometric (non-empty/wedge) directions (1 1 0)
    Mesh has 2 solution (non-empty) directions (1 1 0)
    All edges aligned with or perpendicular to non-empty directions.
    Boundary openness (7.35333e-18 6.43417e-18 5.38502e-17) OK.
    Max cell openness = 1.52604e-16 OK.
    Max aspect ratio = 5.26314 OK.
    Minimum face area = 0.00431534. Maximum face area = 0.3939.  Face area magnitudes OK.
    Min volume = 0.00431534. Max volume = 0.155157.  Total volume = 99.2139.  Cell volumes OK.
    Mesh non-orthogonality Max: 39.2387 average: 9.82073
    Non-orthogonality check OK.
    Face pyramids OK.
    Max skewness = 0.578088 OK.
    Coupled point location match (average 0) OK.

Mesh OK.

End